REMARK  Name = 3LZB_ITI_A_1
REMARK  7 active torsions:
REMARK  status: ('A' for Active; 'I' for Inactive)
REMARK    1  A    between atoms: C_9  and  C_33
REMARK    2  A    between atoms: C_10  and  N_40
REMARK    3  A    between atoms: C_11  and  C_26
REMARK    4  A    between atoms: C_12  and  C_23
REMARK    5  A    between atoms: C_15  and  C_33
REMARK    6  A    between atoms: C_24  and  N_38
REMARK    7  A    between atoms: C_25  and  N_39
REMARK                            x       y       z     vdW  Elec       q    Type
REMARK                         _______ _______ _______ _____ _____    ______ ____
ROOT
ATOM      1  C   UNL A   1      16.783   7.244  -0.963  0.00  0.00    +0.100 A 
ATOM      2  C   UNL A   1      15.738   8.704   2.119  0.00  0.00    +0.101 A 
ATOM      3  C   UNL A   1      15.695   7.770  -0.291  0.00  0.00    +0.100 A 
ATOM      4  C   UNL A   1      17.494   7.760   0.948  0.00  0.00    +0.178 A 
ATOM      5  C   UNL A   1      16.726   8.778   3.038  0.00  0.00    +0.067 A 
ATOM      6  N   UNL A   1      17.897   7.214  -0.183  0.00  0.00    -0.221 NA
ATOM      7  N   UNL A   1      16.193   8.120   0.931  0.00  0.00    -0.291 N 
ATOM      8  S   UNL A   1      18.238   8.132   2.474  0.00  0.00    -0.058 S 
ENDROOT
BRANCH   3  11
ATOM      9  C   UNL A   1      13.675   7.120  -1.605  0.00  0.00    +0.050 A 
ATOM     10  C   UNL A   1      12.347   7.347  -1.912  0.00  0.00    +0.116 A 
ATOM     11  C   UNL A   1      14.311   7.933  -0.662  0.00  0.00    +0.095 A 
ATOM     12  C   UNL A   1      12.327   9.046  -0.411  0.00  0.00    +0.220 A 
ATOM     13  N   UNL A   1      11.675   8.315  -1.309  0.00  0.00    -0.223 NA
ATOM     14  N   UNL A   1      13.601   8.891  -0.077  0.00  0.00    -0.213 NA
ATOM     15  N   UNL A   1      11.569  10.004   0.203  0.00  0.00    -0.284 N 
ATOM     16  H   UNL A   1      10.576   9.927  -0.034  0.00  0.00    +0.155 HD
BRANCH  15  22
ATOM     17  C   UNL A   1      13.512  12.221   2.457  0.00  0.00    +0.025 A 
ATOM     18  C   UNL A   1      11.471  11.527   3.563  0.00  0.00    +0.025 A 
ATOM     19  C   UNL A   1      13.149  11.492   1.330  0.00  0.00    +0.025 A 
ATOM     20  C   UNL A   1      11.110  10.793   2.438  0.00  0.00    +0.025 A 
ATOM     21  C   UNL A   1      12.676  12.246   3.581  0.00  0.00    +0.030 A 
ATOM     22  C   UNL A   1      11.955  10.769   1.329  0.00  0.00    +0.034 A 
BRANCH  21  27
ATOM     23  C   UNL A   1      13.886  14.228   4.571  0.00  0.00    +0.133 C 
ATOM     24  C   UNL A   1      12.358  12.815   6.030  0.00  0.00    +0.133 C 
ATOM     25  C   UNL A   1      13.304  15.303   5.521  0.00  0.00    +0.178 C 
ATOM     26  C   UNL A   1      13.266  13.439   7.116  0.00  0.00    +0.178 C 
ATOM     27  N   UNL A   1      13.065  12.987   4.731  0.00  0.00    -0.326 N 
ATOM     28  O   UNL A   1      13.401  14.852   6.883  0.00  0.00    -0.377 OA
ENDBRANCH  21  27
ENDBRANCH  15  22
ENDBRANCH   3  11
BRANCH   1  34
ATOM     29  C   UNL A   1      16.263   7.163  -4.688  0.00  0.00    +0.002 A 
ATOM     30  C   UNL A   1      16.334   7.623  -3.377  0.00  0.00    +0.010 A 
ATOM     31  C   UNL A   1      16.633   5.858  -4.990  0.00  0.00    +0.023 A 
ATOM     32  C   UNL A   1      17.084   5.022  -3.967  0.00  0.00    +0.034 A 
ATOM     33  C   UNL A   1      17.174   5.480  -2.656  0.00  0.00    +0.033 A 
ATOM     34  C   UNL A   1      16.774   6.782  -2.342  0.00  0.00    +0.004 A 
BRANCH  32  36
ATOM     35  C   UNL A   1      16.873   2.808  -5.079  0.00  0.00    +0.222 C 
ATOM     36  N   UNL A   1      17.484   3.694  -4.227  0.00  0.00    -0.285 N 
ATOM     37  O   UNL A   1      15.869   3.127  -5.682  0.00  0.00    -0.275 OA
ATOM     38  H   UNL A   1      18.329   3.349  -3.752  0.00  0.00    +0.155 HD
BRANCH  35  39
ATOM     39  C   UNL A   1      17.470   1.419  -5.200  0.00  0.00    +0.131 C 
BRANCH  39  42
ATOM     40  C   UNL A   1      19.539   2.146  -6.458  0.00  0.00    +0.004 A 
ATOM     41  C   UNL A   1      19.816   1.139  -4.288  0.00  0.00    +0.004 A 
ATOM     42  C   UNL A   1      18.980   1.567  -5.319  0.00  0.00    -0.039 A 
ATOM     43  C   UNL A   1      21.747   1.875  -5.530  0.00  0.00    +0.000 A 
ATOM     44  C   UNL A   1      20.918   2.299  -6.563  0.00  0.00    +0.000 A 
ATOM     45  C   UNL A   1      21.195   1.294  -4.393  0.00  0.00    +0.000 A 
ENDBRANCH  39  42
ENDBRANCH  35  39
ENDBRANCH  32  36
ENDBRANCH   1  34
TORSDOF 7
