REMARK  Name = 1XKK_FMM_A_91
REMARK  11 active torsions:
REMARK  status: ('A' for Active; 'I' for Inactive)
REMARK    1  A    between atoms: C_1  and  S_2
REMARK    2  A    between atoms: S_2  and  C_5
REMARK    3  A    between atoms: C_5  and  C_6
REMARK    4  A    between atoms: C_6  and  N_7
REMARK    5  A    between atoms: N_7  and  C_8
REMARK    6  A    between atoms: C_8  and  C_9
REMARK    7  A    between atoms: C_12  and  C_14
REMARK    8  A    between atoms: N_22  and  C_23
REMARK    9  A    between atoms: C_26  and  O_27
REMARK   10  A    between atoms: O_27  and  C_28
REMARK   11  A    between atoms: C_28  and  C_29
REMARK                            x       y       z     vdW  Elec       q    Type
REMARK                         _______ _______ _______ _____ _____    ______ ____
ROOT
ATOM      1  C   UNL A   1      16.111  31.189  35.244  0.00  0.00    +0.018 A 
ATOM      2  C   UNL A   1      14.814  30.918  34.739  0.00  0.00    +0.013 A 
ATOM      3  C   UNL A   1      13.689  31.266  35.454  0.00  0.00    +0.029 A 
ATOM      4  C   UNL A   1      13.804  31.900  36.706  0.00  0.00    +0.076 A 
ATOM      5  N   UNL A   1      12.683  32.227  37.416  0.00  0.00    -0.235 NA
ATOM      6  C   UNL A   1      12.808  32.806  38.575  0.00  0.00    +0.224 A 
ATOM      7  N   UNL A   1      13.998  33.118  39.138  0.00  0.00    -0.220 NA
ATOM      8  C   UNL A   1      15.098  32.830  38.494  0.00  0.00    +0.134 A 
ATOM      9  N   UNL A   1      16.307  33.189  39.066  0.00  0.00    -0.299 N 
ATOM     10  C   UNL A   1      15.077  32.189  37.221  0.00  0.00    +0.041 A 
ATOM     11  C   UNL A   1      16.225  31.823  36.475  0.00  0.00    +0.025 A 
ATOM     12  H   UNL A   1      17.124  33.181  38.446  0.00  0.00    +0.154 HD
ENDROOT
BRANCH   9  13
ATOM     13  C   UNL A   1      16.504  33.652  40.387  0.00  0.00    +0.034 A 
ATOM     14  C   UNL A   1      17.353  34.743  40.578  0.00  0.00    +0.027 A 
ATOM     15  C   UNL A   1      17.591  35.210  41.869  0.00  0.00    +0.049 A 
ATOM     16  C   UNL A   1      16.983  34.579  42.956  0.00  0.00    +0.139 A 
ATOM     17  C   UNL A   1      16.132  33.478  42.758  0.00  0.00    +0.084 A 
ATOM     18 CL   UNL A   1      15.371  32.684  44.100  0.00  0.00    -0.080 Cl
ATOM     19  C   UNL A   1      15.894  33.013  41.467  0.00  0.00    +0.047 A 
BRANCH  16  20
ATOM     20  O   UNL A   1      17.205  35.017  44.260  0.00  0.00    -0.486 OA
BRANCH  20  21
ATOM     21  C   UNL A   1      17.723  36.310  44.670  0.00  0.00    +0.264 C 
BRANCH  21  22
ATOM     22  C   UNL A   1      16.703  37.342  44.220  0.00  0.00    -0.008 A 
ATOM     23  C   UNL A   1      17.105  38.464  43.486  0.00  0.00    +0.007 A 
ATOM     24  C   UNL A   1      16.175  39.418  43.072  0.00  0.00    +0.003 A 
ATOM     25  C   UNL A   1      14.829  39.263  43.392  0.00  0.00    +0.038 A 
ATOM     26  C   UNL A   1      14.444  38.148  44.123  0.00  0.00    +0.124 A 
ATOM     27  F   UNL A   1      13.136  37.995  44.439  0.00  0.00    -0.205 F 
ATOM     28  C   UNL A   1      15.353  37.187  44.544  0.00  0.00    +0.045 A 
ENDBRANCH  21  22
ENDBRANCH  20  21
ENDBRANCH  16  20
ENDBRANCH   9  13
BRANCH   1  32
ATOM     29  C   UNL A   1      19.440  30.746  33.963  0.00  0.00    +0.119 A 
ATOM     30  C   UNL A   1      18.793  29.952  33.079  0.00  0.00    +0.046 A 
ATOM     31  C   UNL A   1      17.437  29.986  33.406  0.00  0.00    +0.050 A 
ATOM     32  C   UNL A   1      17.295  30.803  34.487  0.00  0.00    +0.135 A 
ATOM     33  O   UNL A   1      18.536  31.272  34.829  0.00  0.00    -0.458 OA
BRANCH  29  34
ATOM     34  C   UNL A   1      20.910  31.088  34.079  0.00  0.00    +0.155 C 
BRANCH  34  35
ATOM     35  N   UNL A   1      20.995  32.528  33.755  0.00  0.00    -0.308 NA
ATOM     36  H   UNL A   1      20.189  32.939  34.221  0.00  0.00    +0.122 HD
BRANCH  35  37
ATOM     37  C   UNL A   1      20.892  32.810  32.298  0.00  0.00    +0.104 C 
BRANCH  37  38
ATOM     38  C   UNL A   1      22.245  32.513  31.629  0.00  0.00    +0.180 C 
BRANCH  38  40
ATOM     39  C   UNL A   1      23.650  33.931  33.665  0.00  0.00    +0.194 C 
ATOM     40  S   UNL A   1      23.584  33.657  31.913  0.00  0.00    -0.033 S 
ATOM     41  O   UNL A   1      24.795  33.022  31.526  0.00  0.00    -0.175 OA
ATOM     42  O   UNL A   1      23.262  34.888  31.279  0.00  0.00    -0.175 OA
ENDBRANCH  38  40
ENDBRANCH  37  38
ENDBRANCH  35  37
ENDBRANCH  34  35
ENDBRANCH  29  34
ENDBRANCH   1  32
TORSDOF 10
