REMARK  Name = 2EB3_ANP_A_2001
REMARK  11 active torsions:
REMARK  status: ('A' for Active; 'I' for Inactive)
REMARK    1  A    between atoms: P_1  and  N_8
REMARK    2  A    between atoms: P_5  and  N_8
REMARK    3  A    between atoms: P_5  and  O_12
REMARK    4  A    between atoms: P_9  and  O_12
REMARK    5  A    between atoms: P_9  and  O_13
REMARK    6  A    between atoms: O_13  and  C_14
REMARK    7  A    between atoms: C_14  and  C_15
REMARK    8  A    between atoms: C_17  and  O_18
REMARK    9  A    between atoms: C_19  and  O_20
REMARK   10  A    between atoms: C_21  and  N_22
REMARK   11  A    between atoms: C_26  and  N_27
REMARK                            x       y       z     vdW  Elec       q    Type
REMARK                         _______ _______ _______ _____ _____    ______ ____
ROOT
ATOM      1  C   UNL A   1      21.611 -46.965   1.518  0.00  0.00    +0.178 C 
ATOM      2  O   UNL A   1      21.097 -47.993   0.664  0.00  0.00    -0.346 OA
ATOM      3  C   UNL A   1      21.461 -47.491   2.951  0.00  0.00    +0.178 C 
ATOM      4  C   UNL A   1      21.711 -48.994   2.779  0.00  0.00    +0.195 C 
ATOM      5  C   UNL A   1      21.049 -49.214   1.412  0.00  0.00    +0.253 C 
ENDROOT
BRANCH   5   6
ATOM      6  N   UNL A   1      21.629 -50.346   0.653  0.00  0.00    -0.285 N 
ATOM      7  C   UNL A   1      22.948 -50.681   0.420  0.00  0.00    +0.203 A 
ATOM      8  N   UNL A   1      23.101 -51.788  -0.261  0.00  0.00    -0.231 NA
ATOM      9  C   UNL A   1      21.795 -52.210  -0.498  0.00  0.00    +0.147 A 
ATOM     10  C   UNL A   1      21.227 -53.320  -1.180  0.00  0.00    +0.147 A 
ATOM     11  N   UNL A   1      19.897 -53.473  -1.238  0.00  0.00    -0.219 NA
ATOM     12  C   UNL A   1      19.139 -52.557  -0.639  0.00  0.00    +0.225 A 
ATOM     13  N   UNL A   1      19.524 -51.469   0.032  0.00  0.00    -0.216 NA
ATOM     14  C   UNL A   1      20.888 -51.345   0.063  0.00  0.00    +0.167 A 
BRANCH  10  15
ATOM     15  N   UNL A   1      21.921 -54.268  -1.798  0.00  0.00    -0.341 N 
ATOM     16  H   UNL A   1      21.415 -55.004  -2.253  0.00  0.00    +0.144 HD
ATOM     17  H   UNL A   1      22.927 -54.201  -1.789  0.00  0.00    +0.144 HD
ENDBRANCH  10  15
ENDBRANCH   5   6
BRANCH   3  18
ATOM     18  O   UNL A   1      20.138 -47.281   3.449  0.00  0.00    -0.386 OA
ATOM     19  H   UNL A   1      20.019 -47.982   4.103  0.00  0.00    +0.210 HD
ENDBRANCH   3  18
BRANCH   4  20
ATOM     20  O   UNL A   1      21.220 -49.720   3.909  0.00  0.00    -0.385 OA
ATOM     21  H   UNL A   1      21.966 -49.683   4.533  0.00  0.00    +0.210 HD
ENDBRANCH   4  20
BRANCH   1  22
ATOM     22  C   UNL A   1      23.076 -46.613   1.196  0.00  0.00    +0.202 C 
BRANCH  22  23
ATOM     23  O   UNL A   1      23.929 -47.707   1.459  0.00  0.00    -0.325 OA
BRANCH  23  24
ATOM     24  P   UNL A   1      25.519 -47.551   1.596  0.00  0.00    +0.216 P 
ATOM     25  O   UNL A   1      25.742 -46.285   0.861  0.00  0.00    -0.517 OA
ATOM     26  O   UNL A   1      25.911 -48.762   0.847  0.00  0.00    -0.437 OA
BRANCH  24  27
ATOM     27  O   UNL A   1      25.968 -47.538   3.047  0.00  0.00    -0.298 OA
BRANCH  27  28
ATOM     28  P   UNL A   1      25.017 -47.285   4.195  0.00  0.00    +0.112 P 
ATOM     29  O   UNL A   1      24.068 -48.393   4.450  0.00  0.00    -0.325 OA
ATOM     30  O   UNL A   1      24.377 -45.962   4.043  0.00  0.00    -0.794 OA
BRANCH  28  31
ATOM     31  N   UNL A   1      25.733 -47.080   5.581  0.00  0.00    +0.414 N 
ATOM     32  H   UNL A   1      25.929 -46.080   5.673  0.00  0.00    -0.068 HD
ATOM     33  H   UNL A   1      25.213 -47.602   6.289  0.00  0.00    -0.068 HD
BRANCH  31  34
ATOM     34  P   UNL A   1      27.121 -47.673   5.803  0.00  0.00    -0.187 P 
ATOM     35  O   UNL A   1      27.126 -49.051   5.217  0.00  0.00    -0.679 OA
ATOM     36  O   UNL A   1      28.013 -46.644   5.177  0.00  0.00    -0.610 OA
ATOM     37  O   UNL A   1      27.104 -47.650   7.304  0.00  0.00    -0.610 OA
ENDBRANCH  31  34
ENDBRANCH  28  31
ENDBRANCH  27  28
ENDBRANCH  24  27
ENDBRANCH  23  24
ENDBRANCH  22  23
ENDBRANCH   1  22
TORSDOF 11
