REMARK  Name = 2ITO_IRE_A_2020
REMARK  8 active torsions:
REMARK  status: ('A' for Active; 'I' for Inactive)
REMARK    1  A    between atoms: N_6  and  C_7
REMARK    2  A    between atoms: C_7  and  C_8
REMARK    3  A    between atoms: C_8  and  C_9
REMARK    4  A    between atoms: C_9  and  O_10
REMARK    5  A    between atoms: O_10  and  C_11
REMARK    6  A    between atoms: C_12  and  O_14
REMARK    7  A    between atoms: O_14  and  C_15
REMARK    8  A    between atoms: N_23  and  C_24
REMARK                            x       y       z     vdW  Elec       q    Type
REMARK                         _______ _______ _______ _____ _____    ______ ____
ROOT
ATOM      1  C   UNL A   1     -49.942  -0.670 -19.444  0.00  0.00    +0.163 A 
ATOM      2  C   UNL A   1     -50.110   0.281 -18.408  0.00  0.00    +0.164 A 
ATOM      3  C   UNL A   1     -50.745   1.481 -18.670  0.00  0.00    +0.077 A 
ATOM      4  C   UNL A   1     -50.404  -0.419 -20.719  0.00  0.00    +0.062 A 
ATOM      5  C   UNL A   1     -51.063   0.808 -20.997  0.00  0.00    +0.044 A 
ATOM      6  C   UNL A   1     -51.220   1.755 -19.968  0.00  0.00    +0.080 A 
ATOM      7  N   UNL A   1     -51.829   2.952 -20.228  0.00  0.00    -0.235 NA
ATOM      8  C   UNL A   1     -52.264   3.203 -21.427  0.00  0.00    +0.224 A 
ATOM      9  N   UNL A   1     -52.159   2.338 -22.464  0.00  0.00    -0.220 NA
ATOM     10  C   UNL A   1     -51.590   1.180 -22.267  0.00  0.00    +0.134 A 
ATOM     11  N   UNL A   1     -51.533   0.288 -23.329  0.00  0.00    -0.299 N 
ATOM     12  H   UNL A   1     -51.369  -0.694 -23.083  0.00  0.00    +0.154 HD
ENDROOT
BRANCH  11  13
ATOM     13  C   UNL A   1     -51.831   0.569 -24.682  0.00  0.00    +0.034 A 
ATOM     14  C   UNL A   1     -51.391   1.753 -25.285  0.00  0.00    +0.046 A 
ATOM     15  C   UNL A   1     -51.693   1.988 -26.626  0.00  0.00    +0.078 A 
ATOM     16 CL   UNL A   1     -51.158   3.452 -27.384  0.00  0.00    -0.081 Cl
ATOM     17  C   UNL A   1     -52.422   1.025 -27.334  0.00  0.00    +0.142 A 
ATOM     18  F   UNL A   1     -52.723   1.230 -28.630  0.00  0.00    -0.204 F 
ATOM     19  C   UNL A   1     -52.854  -0.156 -26.741  0.00  0.00    +0.041 A 
ATOM     20  C   UNL A   1     -52.554  -0.389 -25.400  0.00  0.00    +0.026 A 
ENDBRANCH  11  13
BRANCH   2  21
ATOM     21  O   UNL A   1     -49.612  -0.019 -17.146  0.00  0.00    -0.491 OA
ATOM     22  C   UNL A   1     -49.885   0.786 -15.968  0.00  0.00    +0.277 C 
ENDBRANCH   2  21
BRANCH   1  23
ATOM     23  O   UNL A   1     -49.317  -1.861 -19.168  0.00  0.00    -0.488 OA
BRANCH  23  24
ATOM     24  C   UNL A   1     -48.091  -2.207 -19.839  0.00  0.00    +0.234 C 
BRANCH  24  25
ATOM     25  C   UNL A   1     -47.300  -3.020 -18.808  0.00  0.00    +0.092 C 
BRANCH  25  26
ATOM     26  C   UNL A   1     -47.144  -2.114 -17.575  0.00  0.00    +0.134 C 
BRANCH  26  32
ATOM     27  C   UNL A   1     -46.863  -2.337 -15.223  0.00  0.00    +0.160 C 
ATOM     28  C   UNL A   1     -46.209  -3.195 -14.114  0.00  0.00    +0.210 C 
ATOM     29  O   UNL A   1     -44.801  -3.160 -14.338  0.00  0.00    -0.369 OA
ATOM     30  C   UNL A   1     -44.388  -3.735 -15.576  0.00  0.00    +0.210 C 
ATOM     31  C   UNL A   1     -45.020  -2.884 -16.704  0.00  0.00    +0.160 C 
ATOM     32  N   UNL A   1     -46.509  -2.946 -16.541  0.00  0.00    +0.239 N 
ATOM     33  H   UNL A   1     -46.846  -3.900 -16.589  0.00  0.00    +0.203 HD
ENDBRANCH  26  32
ENDBRANCH  25  26
ENDBRANCH  24  25
ENDBRANCH  23  24
ENDBRANCH   1  23
TORSDOF 7
