REMARK  Name = 3IKA_0UN_A_1797
REMARK  9 active torsions:
REMARK  status: ('A' for Active; 'I' for Inactive)
REMARK    1  A    between atoms: N_3  and  C_4
REMARK    2  A    between atoms: N_7  and  C_8
REMARK    3  A    between atoms: C_10  and  O_11
REMARK    4  A    between atoms: O_11  and  C_12
REMARK    5  A    between atoms: C_15  and  N_16
REMARK    6  A    between atoms: C_23  and  O_24
REMARK    7  A    between atoms: O_24  and  C_25
REMARK    8  A    between atoms: C_30  and  N_31
REMARK    9  A    between atoms: C_32  and  C_34
REMARK                            x       y       z     vdW  Elec       q    Type
REMARK                         _______ _______ _______ _____ _____    ______ ____
ROOT
ATOM      1  N   UNL A   1      -8.359  17.134  32.296  0.00  0.00    -0.281 N 
ATOM      2  C   UNL A   1      -8.389  18.102  31.325  0.00  0.00    +0.223 A 
ATOM      3  N   UNL A   1      -9.558  18.471  30.800  0.00  0.00    -0.178 NA
ATOM      4  N   UNL A   1      -7.204  18.596  30.965  0.00  0.00    -0.221 NA
ATOM      5  C   UNL A   1      -7.175  19.523  30.009  0.00  0.00    +0.139 A 
ATOM      6  C   UNL A   1      -8.348  19.953  29.403  0.00  0.00    +0.121 A 
ATOM      7 CL   UNL A   1      -8.307  21.150  28.154  0.00  0.00    -0.076 Cl
ATOM      8  C   UNL A   1      -9.543  19.378  29.842  0.00  0.00    +0.243 A 
ATOM      9  H   UNL A   1      -7.449  16.663  32.337  0.00  0.00    +0.155 HD
ENDROOT
BRANCH   1  15
ATOM     10  C   UNL A   1     -11.793  14.795  32.889  0.00  0.00    +0.034 A 
ATOM     11  C   UNL A   1     -10.603  14.179  32.485  0.00  0.00    +0.070 A 
ATOM     12  C   UNL A   1      -9.451  14.950  32.336  0.00  0.00    +0.143 A 
ATOM     13  C   UNL A   1     -11.809  16.162  33.206  0.00  0.00    +0.025 A 
ATOM     14  C   UNL A   1     -10.657  16.923  33.058  0.00  0.00    +0.029 A 
ATOM     15  C   UNL A   1      -9.491  16.329  32.580  0.00  0.00    +0.076 A 
BRANCH  10  22
ATOM     16  C   UNL A   1     -13.006  13.024  34.026  0.00  0.00    +0.156 C 
ATOM     17  C   UNL A   1     -14.168  12.040  33.712  0.00  0.00    +0.150 C 
ATOM     18  N   UNL A   1     -15.462  12.807  33.641  0.00  0.00    +0.235 N 
ATOM     19  C   UNL A   1     -16.556  11.854  33.363  0.00  0.00    +0.190 C 
ATOM     20  C   UNL A   1     -15.370  13.759  32.477  0.00  0.00    +0.150 C 
ATOM     21  C   UNL A   1     -14.243  14.775  32.771  0.00  0.00    +0.156 C 
ATOM     22  N   UNL A   1     -12.975  14.015  32.929  0.00  0.00    -0.320 N 
ATOM     23  H   UNL A   1     -15.617  13.327  34.498  0.00  0.00    +0.203 HD
ENDBRANCH  10  22
BRANCH  12  24
ATOM     24  O   UNL A   1      -8.243  14.393  31.924  0.00  0.00    -0.493 OA
ATOM     25  C   UNL A   1      -8.082  13.034  31.461  0.00  0.00    +0.277 C 
ENDBRANCH  12  24
ENDBRANCH   1  15
BRANCH   8  26
ATOM     26  O   UNL A   1     -10.737  19.740  29.249  0.00  0.00    -0.436 OA
BRANCH  26  27
ATOM     27  C   UNL A   1     -11.994  19.284  29.622  0.00  0.00    +0.132 A 
ATOM     28  C   UNL A   1     -12.441  19.410  30.936  0.00  0.00    +0.069 A 
ATOM     29  C   UNL A   1     -12.802  18.722  28.635  0.00  0.00    +0.046 A 
ATOM     30  C   UNL A   1     -14.079  18.274  28.968  0.00  0.00    +0.005 A 
ATOM     31  C   UNL A   1     -14.546  18.393  30.275  0.00  0.00    +0.023 A 
ATOM     32  C   UNL A   1     -13.722  18.959  31.256  0.00  0.00    +0.037 A 
BRANCH  32  33
ATOM     33  N   UNL A   1     -14.159  19.154  32.590  0.00  0.00    -0.282 N 
ATOM     34  C   UNL A   1     -15.111  18.452  33.294  0.00  0.00    +0.240 C 
ATOM     35  O   UNL A   1     -15.575  17.412  32.840  0.00  0.00    -0.271 OA
ATOM     36  H   UNL A   1     -13.712  19.923  33.100  0.00  0.00    +0.155 HD
BRANCH  34  37
ATOM     37  C   UNL A   1     -15.484  18.992  34.594  0.00  0.00    +0.060 C 
ATOM     38  C   UNL A   1     -16.400  18.425  35.408  0.00  0.00    +0.013 C 
ENDBRANCH  34  37
ENDBRANCH  32  33
ENDBRANCH  26  27
ENDBRANCH   8  26
TORSDOF 7
