REMARK  Name = 2ITQ_ITQ_A_2019
REMARK  5 active torsions:
REMARK  status: ('A' for Active; 'I' for Inactive)
REMARK    1  A    between atoms: N_8  and  C_30
REMARK    2  A    between atoms: N_8  and  C_35
REMARK    3  A    between atoms: O_13  and  C_29
REMARK    4  A    between atoms: O_13  and  C_34
REMARK    5  A    between atoms: C_28  and  C_33
REMARK                            x       y       z     vdW  Elec       q    Type
REMARK                         _______ _______ _______ _____ _____    ______ ____
ROOT
ATOM      1  C   UNL A   1     -49.381  -1.093 -18.840  0.00  0.00    +0.054 C 
ATOM      2  N   UNL A   1     -54.598   1.844 -23.038  0.00  0.00    -0.184 NA
ATOM      3  C   UNL A   1     -50.230  -0.602 -17.655  0.00  0.00    +0.006 C 
ATOM      4  N   UNL A   1     -50.393  -1.989 -24.496  0.00  0.00    -0.307 N 
ATOM      5  C   UNL A   1     -50.781   0.813 -17.911  0.00  0.00    +0.005 C 
ATOM      6  N   UNL A   1     -49.963  -1.404 -21.337  0.00  0.00    -0.315 N 
ATOM      7  C   UNL A   1     -51.813   0.833 -19.055  0.00  0.00    +0.037 C 
ATOM      8  O   UNL A   1     -48.536  -2.442 -22.988  0.00  0.00    -0.328 OA
ATOM      9  C   UNL A   1     -51.257   0.012 -20.204  0.00  0.00    -0.018 A 
ATOM     10  O   UNL A   1     -54.091   1.958 -20.774  0.00  0.00    -0.268 OA
ATOM     11  C   UNL A   1     -51.717  -0.024 -21.537  0.00  0.00    +0.018 A 
ATOM     12  C   UNL A   1     -52.768   0.619 -22.248  0.00  0.00    +0.057 A 
ATOM     13  C   UNL A   1     -53.826   1.521 -21.873  0.00  0.00    +0.269 C 
ATOM     14  C   UNL A   1     -54.066   1.200 -24.001  0.00  0.00    +0.110 C 
ATOM     15  C   UNL A   1     -52.932   0.409 -23.597  0.00  0.00    +0.013 A 
ATOM     16  C   UNL A   1     -52.077  -0.471 -24.311  0.00  0.00    +0.019 A 
ATOM     17  C   UNL A   1     -52.019  -0.890 -25.663  0.00  0.00    +0.008 A 
ATOM     18  C   UNL A   1     -52.793  -0.546 -26.782  0.00  0.00    +0.010 A 
ATOM     19  C   UNL A   1     -52.515  -1.129 -28.006  0.00  0.00    +0.001 A 
ATOM     20  C   UNL A   1     -51.463  -2.051 -28.131  0.00  0.00    +0.002 A 
ATOM     21  C   UNL A   1     -50.689  -2.398 -27.035  0.00  0.00    +0.026 A 
ATOM     22  C   UNL A   1     -50.981  -1.815 -25.787  0.00  0.00    +0.053 A 
ATOM     23  C   UNL A   1     -51.072  -1.134 -23.619  0.00  0.00    +0.077 A 
ATOM     24  C   UNL A   1     -50.891  -0.904 -22.235  0.00  0.00    +0.077 A 
ATOM     25  C   UNL A   1     -50.202  -0.838 -20.093  0.00  0.00    +0.026 A 
ATOM     26  C   UNL A   1     -49.439  -3.024 -23.982  0.00  0.00    +0.178 C 
ATOM     27  C   UNL A   1     -50.182  -4.294 -23.420  0.00  0.00    +0.218 C 
ATOM     28  C   UNL A   1     -49.375  -4.807 -22.212  0.00  0.00    +0.101 C 
ATOM     29  C   UNL A   1     -49.350  -3.770 -21.076  0.00  0.00    +0.111 C 
ATOM     30  C   UNL A   1     -48.898  -2.382 -21.584  0.00  0.00    +0.228 C 
ATOM     31  C   UNL A   1     -48.462  -3.504 -25.074  0.00  0.00    +0.070 C 
ENDROOT
BRANCH  28  32
ATOM     32  N   UNL A   1     -50.012  -6.060 -21.714  0.00  0.00    +0.229 N 
ATOM     33  C   UNL A   1     -49.363  -6.704 -20.538  0.00  0.00    +0.189 C 
ATOM     34  H   UNL A   1     -50.074  -6.731 -22.470  0.00  0.00    +0.201 HD
ATOM     35  H   UNL A   1     -50.972  -5.794 -21.491  0.00  0.00    +0.201 HD
ENDBRANCH  28  32
BRANCH  27  36
ATOM     36  O   UNL A   1     -51.520  -4.089 -22.928  0.00  0.00    -0.369 OA
ATOM     37  C   UNL A   1     -52.577  -4.264 -23.873  0.00  0.00    +0.195 C 
ENDBRANCH  27  36
TORSDOF 2
