REMARK  Name = 1M17_AQ4_A_999
REMARK  13 active torsions:
REMARK  status: ('A' for Active; 'I' for Inactive)
REMARK    1  A    between atoms: C_2  and  C_3
REMARK    2  A    between atoms: C_5  and  N_6
REMARK    3  A    between atoms: N_6  and  C_7
REMARK    4  A    between atoms: C_10  and  O_11
REMARK    5  A    between atoms: O_11  and  C_12
REMARK    6  A    between atoms: C_12  and  C_13
REMARK    7  A    between atoms: C_13  and  O_14
REMARK    8  A    between atoms: O_14  and  C_15
REMARK    9  A    between atoms: C_16  and  O_17
REMARK   10  A    between atoms: O_17  and  C_18
REMARK   11  A    between atoms: C_18  and  C_19
REMARK   12  A    between atoms: C_19  and  O_20
REMARK   13  A    between atoms: O_20  and  C_21
REMARK                            x       y       z     vdW  Elec       q    Type
REMARK                         _______ _______ _______ _____ _____    ______ ____
ROOT
ATOM      1  C   UNL A   1      23.462  -0.079  54.061  0.00  0.00    +0.134 A 
ATOM      2  C   UNL A   1      22.108  -0.197  53.636  0.00  0.00    +0.044 A 
ATOM      3  C   UNL A   1      21.514   0.576  52.604  0.00  0.00    +0.062 A 
ATOM      4  C   UNL A   1      20.185   0.387  52.280  0.00  0.00    +0.163 A 
ATOM      5  C   UNL A   1      19.403  -0.567  52.987  0.00  0.00    +0.164 A 
ATOM      6  C   UNL A   1      19.981  -1.337  53.973  0.00  0.00    +0.077 A 
ATOM      7  C   UNL A   1      21.339  -1.169  54.300  0.00  0.00    +0.080 A 
ATOM      8  N   UNL A   1      21.917  -1.954  55.263  0.00  0.00    -0.235 NA
ATOM      9  C   UNL A   1      23.169  -1.782  55.564  0.00  0.00    +0.224 A 
ATOM     10  N   UNL A   1      23.965  -0.852  54.984  0.00  0.00    -0.220 NA
ENDROOT
BRANCH   1  11
ATOM     11  N   UNL A   1      24.267   0.908  53.510  0.00  0.00    -0.299 N 
ATOM     12  H   UNL A   1      23.776   1.689  53.064  0.00  0.00    +0.154 HD
BRANCH  11  15
ATOM     13  C   UNL A   1      27.879   0.037  53.630  0.00  0.00    +0.026 A 
ATOM     14  C   UNL A   1      26.495  -0.112  53.563  0.00  0.00    +0.040 A 
ATOM     15  C   UNL A   1      25.672   1.016  53.603  0.00  0.00    +0.034 A 
ATOM     16  C   UNL A   1      26.221   2.295  53.696  0.00  0.00    +0.023 A 
ATOM     17  C   UNL A   1      27.602   2.442  53.760  0.00  0.00    +0.003 A 
ATOM     18  C   UNL A   1      28.427   1.319  53.727  0.00  0.00    +0.017 A 
BRANCH  13  20
ATOM     19  C   UNL A   1      29.447  -2.081  53.568  0.00  0.00    +0.009 C 
ATOM     20  C   UNL A   1      28.735  -1.118  53.596  0.00  0.00    -0.070 C 
ENDBRANCH  13  20
ENDBRANCH  11  15
ENDBRANCH   1  11
BRANCH   4  21
ATOM     21  O   UNL A   1      19.647   1.145  51.262  0.00  0.00    -0.486 OA
BRANCH  21  22
ATOM     22  C   UNL A   1      20.204   1.102  49.916  0.00  0.00    +0.257 C 
BRANCH  22  23
ATOM     23  C   UNL A   1      20.228   2.546  49.397  0.00  0.00    +0.200 C 
BRANCH  23  24
ATOM     24  O   UNL A   1      18.999   2.948  48.798  0.00  0.00    -0.380 OA
ATOM     25  C   UNL A   1      17.962   3.253  49.720  0.00  0.00    +0.194 C 
ENDBRANCH  23  24
ENDBRANCH  22  23
ENDBRANCH  21  22
ENDBRANCH   4  21
BRANCH   5  26
ATOM     26  O   UNL A   1      18.062  -0.798  52.753  0.00  0.00    -0.486 OA
BRANCH  26  27
ATOM     27  C   UNL A   1      17.154   0.015  51.969  0.00  0.00    +0.257 C 
BRANCH  27  28
ATOM     28  C   UNL A   1      15.748  -0.506  52.272  0.00  0.00    +0.200 C 
BRANCH  28  29
ATOM     29  O   UNL A   1      15.265   0.068  53.480  0.00  0.00    -0.380 OA
ATOM     30  C   UNL A   1      14.007  -0.452  53.875  0.00  0.00    +0.194 C 
ENDBRANCH  28  29
ENDBRANCH  27  28
ENDBRANCH  26  27
ENDBRANCH   5  26
TORSDOF 11
