REMARK  Name = 2ITP_AEE_A_2019
REMARK  8 active torsions:
REMARK  status: ('A' for Active; 'I' for Inactive)
REMARK    1  A    between atoms: N_3  and  C_4
REMARK    2  A    between atoms: C_4  and  C_5
REMARK    3  A    between atoms: N_8  and  C_9
REMARK    4  A    between atoms: C_9  and  C_10
REMARK    5  A    between atoms: C_15  and  C_16
REMARK    6  A    between atoms: N_25  and  C_26
REMARK    7  A    between atoms: C_26  and  C_27
REMARK    8  A    between atoms: C_26  and  C_28
REMARK                            x       y       z     vdW  Elec       q    Type
REMARK                         _______ _______ _______ _____ _____    ______ ____
ROOT
ATOM      1  C   UNL A   1     -52.114  -0.069 -19.605  0.00  0.00    +0.049 A 
ATOM      2  N   UNL A   1     -53.438   0.347 -19.709  0.00  0.00    -0.339 N 
ATOM      3  C   UNL A   1     -51.754  -0.540 -20.841  0.00  0.00    +0.041 A 
ATOM      4  C   UNL A   1     -52.863  -0.418 -21.706  0.00  0.00    +0.059 A 
ATOM      5  C   UNL A   1     -53.894   0.132 -20.978  0.00  0.00    +0.144 A 
ATOM      6  N   UNL A   1     -55.122   0.383 -21.476  0.00  0.00    -0.218 NA
ATOM      7  C   UNL A   1     -55.298   0.061 -22.746  0.00  0.00    +0.225 A 
ATOM      8  N   UNL A   1     -54.347  -0.486 -23.553  0.00  0.00    -0.220 NA
ATOM      9  C   UNL A   1     -53.147  -0.719 -23.053  0.00  0.00    +0.132 A 
ATOM     10  N   UNL A   1     -52.180  -1.266 -23.859  0.00  0.00    -0.322 N 
ATOM     11  H   UNL A   1     -54.018   0.738 -18.952  0.00  0.00    +0.167 HD
ATOM     12  H   UNL A   1     -51.227  -1.165 -23.499  0.00  0.00    +0.148 HD
ENDROOT
BRANCH   1  18
ATOM     13  C   UNL A   1     -49.928   0.085 -15.937  0.00  0.00    -0.033 A 
ATOM     14  C   UNL A   1     -51.005   0.944 -16.150  0.00  0.00    +0.005 A 
ATOM     15  C   UNL A   1     -51.712   0.907 -17.346  0.00  0.00    +0.010 A 
ATOM     16  C   UNL A   1     -49.558  -0.802 -16.948  0.00  0.00    +0.005 A 
ATOM     17  C   UNL A   1     -50.268  -0.841 -18.143  0.00  0.00    +0.010 A 
ATOM     18  C   UNL A   1     -51.362   0.005 -18.358  0.00  0.00    -0.002 A 
BRANCH  13  19
ATOM     19  C   UNL A   1     -49.165   0.121 -14.624  0.00  0.00    +0.120 C 
BRANCH  19  25
ATOM     20  C   UNL A   1     -49.557   0.023 -12.175  0.00  0.00    +0.135 C 
ATOM     21  C   UNL A   1     -48.632  -1.185 -11.838  0.00  0.00    +0.147 C 
ATOM     22  N   UNL A   1     -49.357  -2.507 -11.961  0.00  0.00    +0.237 N 
ATOM     23  C   UNL A   1     -49.954  -2.627 -13.339  0.00  0.00    +0.147 C 
ATOM     24  C   UNL A   1     -50.900  -1.434 -13.645  0.00  0.00    +0.135 C 
ATOM     25  N   UNL A   1     -50.145  -0.152 -13.526  0.00  0.00    -0.288 NA
ATOM     26  H   UNL A   1     -48.698  -3.263 -11.821  0.00  0.00    +0.203 HD
BRANCH  22  27
ATOM     27  C   UNL A   1     -50.426  -2.625 -10.949  0.00  0.00    +0.128 C 
ATOM     28  C   UNL A   1     -49.725  -3.148  -9.694  0.00  0.00    +0.060 C 
ENDBRANCH  22  27
ENDBRANCH  19  25
ENDBRANCH  13  19
ENDBRANCH   1  18
BRANCH  10  29
ATOM     29  C   UNL A   1     -52.267  -1.152 -25.302  0.00  0.00    +0.099 C 
ATOM     30  C   UNL A   1     -51.471  -2.330 -25.875  0.00  0.00    +0.033 C 
BRANCH  29  31
ATOM     31  C   UNL A   1     -51.606   0.166 -25.692  0.00  0.00    -0.028 A 
ATOM     32  C   UNL A   1     -50.249   0.422 -25.464  0.00  0.00    +0.005 A 
ATOM     33  C   UNL A   1     -49.689   1.642 -25.831  0.00  0.00    +0.000 A 
ATOM     34  C   UNL A   1     -50.478   2.621 -26.424  0.00  0.00    +0.000 A 
ATOM     35  C   UNL A   1     -51.829   2.380 -26.647  0.00  0.00    +0.000 A 
ATOM     36  C   UNL A   1     -52.389   1.160 -26.281  0.00  0.00    +0.005 A 
ENDBRANCH  29  31
ENDBRANCH  10  29
TORSDOF 6
